Circuit: * C:\Users\justu\Documents\LTspiceXVII\Draft1.asc


Date: Sun Feb 14 19:34:09 2021
Total elapsed time: 0.035 seconds.

tnom = 27
temp = 27
method = trap
totiter = 0
traniter = 0
tranpoints = 0
accept = 0
rejected = 0
matrix size = 3
fillins = 0
solver = Normal

