Circuit: * C:\Users\justu\Documents\LTspiceXVII\Draft3.asc

.OP point found by inspection.

Date: Sun Feb 14 19:41:45 2021
Total elapsed time: 0.049 seconds.

tnom = 27
temp = 27
method = modified trap
totiter = 2656
traniter = 2656
tranpoints = 1329
accept = 1290
rejected = 39
matrix size = 3
fillins = 0
solver = Normal
Matrix Compiler1: 50 bytes object code size  0.1/0.1/[0.1]
Matrix Compiler2: 175 bytes object code size  0.1/0.1/[0.1]

